Version 4
SHEET 1 1108 680
WIRE 288 32 144 32
WIRE 64 64 64 48
WIRE 208 112 208 80
WIRE 144 128 144 32
WIRE 176 128 144 128
WIRE 288 144 288 32
WIRE 288 144 240 144
WIRE 320 144 288 144
WIRE 576 144 528 144
WIRE 688 144 656 144
WIRE 768 144 688 144
WIRE 800 144 768 144
WIRE 896 144 896 128
WIRE 896 144 864 144
WIRE -240 160 -288 160
WIRE -128 160 -160 160
WIRE -48 160 -128 160
WIRE -32 160 -48 160
WIRE 64 160 64 144
WIRE 64 160 32 160
WIRE 176 160 64 160
WIRE -128 176 -128 160
WIRE 64 176 64 160
WIRE 528 176 528 144
WIRE 688 176 688 144
WIRE 768 176 768 144
WIRE -48 192 -48 160
WIRE 208 208 208 176
WIRE 400 240 400 224
WIRE 768 256 768 240
WIRE -128 272 -128 256
WIRE -48 272 -48 256
WIRE 64 272 64 256
WIRE 400 336 400 320
WIRE -304 384 -304 368
WIRE -304 480 -304 464
FLAG 208 208 0
FLAG -304 480 0
FLAG 208 80 3V3
FLAG -304 368 3V3
FLAG 64 272 0
FLAG 64 48 3V3
FLAG 688 256 0
FLAG 768 256 0
FLAG 896 48 1V65
FLAG 528 256 0
FLAG 528 144 audio
FLAG -48 272 0
FLAG -288 160 audio
FLAG 400 336 0
FLAG 400 224 1V65
FLAG -128 272 0
SYMBOL OpAmps\\AD8629 208 80 R0
SYMATTR InstName U1
SYMBOL voltage -304 368 R0
WINDOW 123 0 0 Left 0
WINDOW 39 0 0 Left 0
SYMATTR InstName V1
SYMATTR Value 3.3
SYMBOL res 48 48 R0
SYMATTR InstName R1
SYMATTR Value 100k
SYMBOL res 48 160 R0
SYMATTR InstName R2
SYMATTR Value 100k
SYMBOL cap 32 144 R90
WINDOW 0 0 32 VBottom 2
WINDOW 3 32 32 VTop 2
SYMATTR InstName C1
SYMATTR Value 2µ
SYMBOL res 672 128 R90
WINDOW 0 0 56 VBottom 2
WINDOW 3 32 56 VTop 2
SYMATTR InstName R3
SYMATTR Value 100
SYMBOL res 672 160 R0
SYMATTR InstName R4
SYMATTR Value 100k
SYMBOL cap 752 176 R0
SYMATTR InstName C3
SYMATTR Value 470p
SYMBOL cap 864 128 R90
WINDOW 0 0 32 VBottom 2
WINDOW 3 32 32 VTop 2
SYMATTR InstName C4
SYMATTR Value 1µ
SYMBOL res 880 32 R0
SYMATTR InstName R5
SYMATTR Value 100k
SYMBOL voltage 528 160 R0
WINDOW 123 24 124 Left 2
WINDOW 39 0 0 Left 0
SYMATTR Value2 AC 10m
SYMATTR InstName V2
SYMATTR Value SINE(0 10m 20k)
SYMBOL cap -64 192 R0
SYMATTR InstName C5
SYMATTR Value 22n
SYMBOL voltage 400 224 R0
WINDOW 123 0 0 Left 0
WINDOW 39 0 0 Left 0
SYMATTR InstName V3
SYMATTR Value 1.65
SYMBOL res -144 144 R90
WINDOW 0 0 56 VBottom 2
WINDOW 3 32 56 VTop 2
SYMATTR InstName R6
SYMATTR Value 100
SYMBOL res -144 160 R0
SYMATTR InstName R7
SYMATTR Value 100k
TEXT -144 376 Left 2 !.ac dec 100 0.1m 10Meg
TEXT 120 432 Left 2 ;2 CONDENSATORI = LIMITARE BANDA (HP + LP)
TEXT 88 456 Left 2 ;SOLUZIONE DI PHIL'S = RICHIEDE OPAMP PER IL BIAS :(
TEXT -48 496 Left 2 ;SOLUZIONE MIA = NO OPA PER BIAS, POLO HF CON LEGGERE Q FACTOR ELEVATO
TEXT -144 400 Left 2 ;.tran 0.2m
TEXT -48 520 Left 2 ;Q-FACTOR ABBASSATO PONENDO PRIMA IL CONDENSATORE, 100k INPUT PER EVITARE FLOATING
